Simple Mesh                              ! 32 CHARACTER ALPHANUMERIC RUN DESCRIPTION
                                         ! 24 CHARACTER ALPHANUMERIC RUN IDENTIFICATION
1 20.0 1 50 1000.0                       ! NFOVER - NONFATAL ERROR OVERRIDE OPTION
0                                        ! NABOUT - ABREVIATED OUTPUT OPTION PARAMETER
600                                      ! NSCREEN - OUTPUT TO UNIT 6 PARAMETER
0                                        ! IHOT - HOT START OPTION PARAMETER
2                                        ! ICS - COORDINATE SYSTEM OPTION PARAMETER
511113                                   ! IM - MODEL RUN TYPE: 0,10,20,30 = 2DDI, 1,11,21,31 = 3D(VS), 2 = 3D(DSS)
1                                        ! NOLIBF - NONLINEAR BOTTOM FRICTION OPTION
2                                        ! NOLIFA - OPTION TO INCLUDE FINITE AMPLITUDE TERMS
1                                        ! NOLICA - OPTION TO INCLUDE CONVECTIVE ACCELERATION TERMS
1                                        ! NOLICAT - OPTION TO CONSIDER TIME DERIVATIVE OF CONV ACC TERMS
0                                        ! NWP - Number of nodal attributes.
0                                        ! NCOR - VARIABLE CORIOLIS IN SPACE OPTION PARAMETER
0                                        ! NTIP - TIDAL POTENTIAL OPTION PARAMETER
0                                        ! NWS - WIND STRESS AND BAROMETRIC PRESSURE OPTION PARAMETER
0                                        ! NRAMP - RAMP FUNCTION OPTION
9.81                                     ! G - ACCELERATION DUE TO GRAVITY - DETERMINES UNITS
0.05000                                  ! TAU0 - WEIGHTING FACTOR IN GWCE
20.000000                                     ! DT - TIME STEP (IN SECONDS)
0.00000                                  ! STATIM - STARTING SIMULATION TIME IN DAYS
0.00000                                  ! REFTIME - REFERENCE TIME (IN DAYS) FOR NODAL FACTORS AND EQUILIBRIUM ARGS
5.00000                                  ! RNDAY - TOTAL LENGTH OF SIMULATION (IN DAYS)
1.00000                                  ! DRAMP - DURATION OF RAMP FUNCTION (IN DAYS)
0.800000 0.200000 0.000000               ! TIME WEIGHTING FACTORS FOR THE GWCE EQUATION
0.100000 2 10 0.010000                   ! H0, NODEDRYMIN, NODEWETMIN, VELMIN - MINIMUM WATER DEPTH AND DRYING/WETTING OPTIONS
-80.000000 30.000000                     ! SLAM0, SFEA0 - LONGITUDE AND LATITUDE ON WHICH THE CPP COORDINATE PROJECTION IS CENTERED
0.002500                                 ! FFACTOR - 2DDI BOTTOM FRICTION COEFFICIENT
-0.00                                    ! ESLM - SPATIALLY CONSTANT HORIZONTAL EDDY VISCOSITY FOR THE MOMENTUM EQUATIONS
0.000000                                 ! CORI - CONSTANT CORIOLIS COEFFICIENT
0                                        ! NTIF - NUMBER OF TIDAL POTENTIAL CONSTITUENTS
1                                        ! NBFR - NUMBER OF PERIODIC FORCING FREQUENCIES ON ELEVATION SPECIFIED BOUNDARIES
M2                                       ! BOUNTAG - FORCING CONSTITUENT NAME
0.0000014052 0.96723 8.55                ! 0.000140520000000 0.96723 8.55
M2                                       ! EALPHA - FORCING CONSTITUENT NAME AGAIN
1.000000 0.000                           ! EMO, EFA
1.000000 0.000                           ! EMO, EFA
1.000000 0.000                           ! EMO, EFA
1.000000 0.000                           ! EMO, EFA
1.000000 0.000                           ! EMO, EFA
1.000000 0.000                           ! EMO, EFA
1.000000 0.000                           ! EMO, EFA
1.000000 0.000                           ! EMO, EFA
110                                      ! ANGINN - MINIMUM ANGLE FOR TANGENTIAL FLOW
0 0.000000 0.000000 0                    ! NOUTE, TOUTSE, TOUTFE, NSPOOLE - FORT 61 OPTIONS
0                                        ! NSTAE - NUMBER OF ELEVATION RECORDING STATIONS, FOLLOWED BY LOCATIONS ON PROCEEDING LINES
0 0.000000 0.000000 0                    ! NOUTV, TOUTSV, TOUTFV, NSPOOLV - FORT 62 OPTIONS
0                                        ! NSTAV - NUMBER OF VELOCITY RECORDING STATIONS, FOLLOWED BY LOCATIONS ON PROCEEDING LINES
-1 0.000000 10.000000 40                   ! NOUTGE, TOUTSGE, TOUTFGE, NSPOOLGE - GLOBAL ELEVATION OUTPUT INFO (UNIT 63)
-1 0.000000 10.000000 40                    ! NOUTGV, TOUTSGV, TOUTFGV, NSPOOLGV - GLOBAL VELOCITY OUTPUT INFO (UNIT 64)
0                                        ! NHARF - NUMBER OF FREQENCIES IN HARMONIC ANALYSIS
0.000000 0.000000 0 0.000000             ! THAS,THAF,NHAINC,FMV - HARMONIC ANALYSIS PARAMETERS
0 0 0 0                                  ! NHASE,NHASV,NHAGE,NHAGV - CONTROL HARMONIC ANALYSIS AND OUTPUT TO UNITS 51,52,53,54
0 0                                      ! NHSTAR,NHSINC - HOT START FILE GENERATION PARAMETERS
1 0 1e-07 35 0                           ! ITITER, ISLDIA, CONVCR, ITMAX - ALGEBRAIC SOLUTION PARAMETERS
simple_mesh_generator.py
The Water Institute
padcirc
netCDF
one
no_comments
simple_mesh_generator
CF3
zcobell@thewaterinstitute.org
2023-01-01 00:00:00
&wetDryControl slim=0.000400 windlim=True directvelWD=True /
&MetControl DragLawString=garratt WindDragLimit=0.00250 invertedBarometerOnElevationBoundary=true /
